# generated using pymatgen
data_SrO
_symmetry_space_group_name_H-M   'P 1'
_cell_length_a   5.20615223
_cell_length_b   5.20615223
_cell_length_c   5.20615223
_cell_angle_alpha   90.00000000
_cell_angle_beta   90.00000000
_cell_angle_gamma   90.00000000
_symmetry_Int_Tables_number   1
_chemical_formula_structural   SrO
_chemical_formula_sum   'Sr4 O4'
_cell_volume   141.10765923
_cell_formula_units_Z   4
loop_
 _symmetry_equiv_pos_site_id
 _symmetry_equiv_pos_as_xyz
  1  'x, y, z'
loop_
 _atom_site_type_symbol
 _atom_site_label
 _atom_site_symmetry_multiplicity
 _atom_site_fract_x
 _atom_site_fract_y
 _atom_site_fract_z
 _atom_site_occupancy
  Sr  Sr0  1  0.000000  0.000000  0.500000  1
  Sr  Sr1  1  0.000000  0.500000  0.000000  1
  Sr  Sr2  1  0.500000  0.000000  0.000000  1
  Sr  Sr3  1  0.500000  0.500000  0.500000  1
  O  O4  1  0.000000  0.000000  0.000000  1
  O  O5  1  0.000000  0.500000  0.500000  1
  O  O6  1  0.500000  0.000000  0.500000  1
  O  O7  1  0.500000  0.500000  0.000000  1
