# generated using pymatgen
data_Y2O3
_symmetry_space_group_name_H-M   'P 1'
_cell_length_a   10.70389092
_cell_length_b   10.70389092
_cell_length_c   10.70389092
_cell_angle_alpha   90.00000000
_cell_angle_beta   90.00000000
_cell_angle_gamma   90.00000000
_symmetry_Int_Tables_number   1
_chemical_formula_structural   Y2O3
_chemical_formula_sum   'Y32 O48'
_cell_volume   1226.37990188
_cell_formula_units_Z   16
loop_
 _symmetry_equiv_pos_site_id
 _symmetry_equiv_pos_as_xyz
  1  'x, y, z'
loop_
 _atom_site_type_symbol
 _atom_site_label
 _atom_site_symmetry_multiplicity
 _atom_site_fract_x
 _atom_site_fract_y
 _atom_site_fract_z
 _atom_site_occupancy
  Y  Y0  1  0.250000  0.217318  0.500000  1
  Y  Y1  1  0.282682  0.500000  0.750000  1
  Y  Y2  1  0.000000  0.750000  0.717318  1
  Y  Y3  1  0.717318  0.000000  0.750000  1
  Y  Y4  1  0.500000  0.750000  0.282682  1
  Y  Y5  1  0.250000  0.782682  0.000000  1
  Y  Y6  1  0.750000  0.782682  0.500000  1
  Y  Y7  1  0.717318  0.500000  0.250000  1
  Y  Y8  1  0.000000  0.250000  0.282682  1
  Y  Y9  1  0.282682  0.000000  0.250000  1
  Y  Y10  1  0.500000  0.250000  0.717318  1
  Y  Y11  1  0.750000  0.217318  0.000000  1
  Y  Y12  1  0.000000  0.000000  0.500000  1
  Y  Y13  1  0.500000  0.500000  0.500000  1
  Y  Y14  1  0.500000  0.000000  0.000000  1
  Y  Y15  1  0.500000  0.000000  0.500000  1
  Y  Y16  1  0.750000  0.717318  0.000000  1
  Y  Y17  1  0.782682  0.000000  0.250000  1
  Y  Y18  1  0.500000  0.250000  0.217318  1
  Y  Y19  1  0.217318  0.500000  0.250000  1
  Y  Y20  1  0.000000  0.250000  0.782682  1
  Y  Y21  1  0.750000  0.282682  0.500000  1
  Y  Y22  1  0.250000  0.282682  0.000000  1
  Y  Y23  1  0.217318  0.000000  0.750000  1
  Y  Y24  1  0.500000  0.750000  0.782682  1
  Y  Y25  1  0.782682  0.500000  0.750000  1
  Y  Y26  1  0.000000  0.750000  0.217318  1
  Y  Y27  1  0.250000  0.717318  0.500000  1
  Y  Y28  1  0.500000  0.500000  0.000000  1
  Y  Y29  1  0.000000  0.000000  0.000000  1
  Y  Y30  1  0.000000  0.500000  0.500000  1
  Y  Y31  1  0.000000  0.500000  0.000000  1
  O  O32  1  0.401671  0.359048  0.870206  1
  O  O33  1  0.598329  0.140952  0.870206  1
  O  O34  1  0.401671  0.640952  0.629794  1
  O  O35  1  0.370206  0.098329  0.640952  1
  O  O36  1  0.359048  0.870206  0.401671  1
  O  O37  1  0.859048  0.629794  0.598329  1
  O  O38  1  0.129794  0.098329  0.359048  1
  O  O39  1  0.140952  0.870206  0.598329  1
  O  O40  1  0.129794  0.901671  0.140952  1
  O  O41  1  0.640952  0.629794  0.401671  1
  O  O42  1  0.370206  0.901671  0.859048  1
  O  O43  1  0.598329  0.859048  0.629794  1
  O  O44  1  0.598329  0.640952  0.129794  1
  O  O45  1  0.401671  0.859048  0.129794  1
  O  O46  1  0.598329  0.359048  0.370206  1
  O  O47  1  0.629794  0.901671  0.359048  1
  O  O48  1  0.401671  0.140952  0.370206  1
  O  O49  1  0.629794  0.098329  0.140952  1
  O  O50  1  0.359048  0.370206  0.598329  1
  O  O51  1  0.870206  0.098329  0.859048  1
  O  O52  1  0.859048  0.129794  0.401671  1
  O  O53  1  0.870206  0.901671  0.640952  1
  O  O54  1  0.140952  0.370206  0.401671  1
  O  O55  1  0.640952  0.129794  0.598329  1
  O  O56  1  0.901671  0.859048  0.370206  1
  O  O57  1  0.098329  0.640952  0.370206  1
  O  O58  1  0.901671  0.140952  0.129794  1
  O  O59  1  0.870206  0.598329  0.140952  1
  O  O60  1  0.859048  0.370206  0.901671  1
  O  O61  1  0.359048  0.129794  0.098329  1
  O  O62  1  0.629794  0.598329  0.859048  1
  O  O63  1  0.640952  0.370206  0.098329  1
  O  O64  1  0.629794  0.401671  0.640952  1
  O  O65  1  0.140952  0.129794  0.901671  1
  O  O66  1  0.870206  0.401671  0.359048  1
  O  O67  1  0.098329  0.359048  0.129794  1
  O  O68  1  0.098329  0.140952  0.629794  1
  O  O69  1  0.901671  0.359048  0.629794  1
  O  O70  1  0.098329  0.859048  0.870206  1
  O  O71  1  0.129794  0.401671  0.859048  1
  O  O72  1  0.901671  0.640952  0.870206  1
  O  O73  1  0.129794  0.598329  0.640952  1
  O  O74  1  0.859048  0.870206  0.098329  1
  O  O75  1  0.370206  0.598329  0.359048  1
  O  O76  1  0.359048  0.629794  0.901671  1
  O  O77  1  0.370206  0.401671  0.140952  1
  O  O78  1  0.640952  0.870206  0.901671  1
  O  O79  1  0.140952  0.629794  0.098329  1
