# generated using pymatgen
data_Y2Ti2O7
_symmetry_space_group_name_H-M   Fd-3m
_cell_length_a   10.18804865
_cell_length_b   10.18804865
_cell_length_c   10.18804865
_cell_angle_alpha   90.00000000
_cell_angle_beta   90.00000000
_cell_angle_gamma   90.00000000
_symmetry_Int_Tables_number   227
_chemical_formula_structural   Y2Ti2O7
_chemical_formula_sum   'Y16 Ti16 O56'
_cell_volume   1057.48211448
_cell_formula_units_Z   8
loop_
 _symmetry_equiv_pos_site_id
 _symmetry_equiv_pos_as_xyz
  1  'x, y, z'
  2  'z+3/4, y+3/4, -x+1/4'
  3  '-x, y, -z'
  4  '-z+3/4, y+3/4, x+1/4'
  5  'x+1/2, -y+1/2, -z'
  6  'z+3/4, -y+3/4, x+1/4'
  7  '-x, -y+1/2, z+1/2'
  8  '-z+3/4, -y+3/4, -x+1/4'
  9  '-y, z, -x'
  10  '-y+3/4, -x+3/4, -z+1/4'
  11  '-y, -z, x'
  12  '-y+3/4, x+3/4, z+1/4'
  13  'y, -z, -x'
  14  'y+3/4, x+3/4, -z+1/4'
  15  'y, z, x'
  16  'y+3/4, -x+3/4, z+1/4'
  17  '-z, -x, y'
  18  'x+3/4, -z+3/4, y+1/4'
  19  'z+1/2, x+1/2, y'
  20  '-x+3/4, z+3/4, y+1/4'
  21  'z, -x, -y'
  22  '-x+3/4, -z+3/4, -y+1/4'
  23  '-z+1/2, x+1/2, -y'
  24  'x+3/4, z+3/4, -y+1/4'
  25  '-x+3/4, -y+3/4, -z+1/4'
  26  '-z+1/2, -y+1/2, x'
  27  'x+3/4, -y+3/4, z+1/4'
  28  'z, -y, -x'
  29  '-x+3/4, y+3/4, z+1/4'
  30  '-z, y, -x'
  31  'x+3/4, y+3/4, -z+1/4'
  32  'z, y, x'
  33  'y+3/4, -z+3/4, x+1/4'
  34  'y+1/2, x+1/2, z'
  35  'y+3/4, z+3/4, -x+1/4'
  36  'y, -x, -z'
  37  '-y+3/4, z+3/4, x+1/4'
  38  '-y+1/2, -x+1/2, z'
  39  '-y+3/4, -z+3/4, -x+1/4'
  40  '-y+1/2, x+1/2, -z'
  41  'z+3/4, x+3/4, -y+1/4'
  42  '-x, z, -y'
  43  '-z+3/4, -x+3/4, -y+1/4'
  44  'x, -z, -y'
  45  '-z+3/4, x+3/4, y+1/4'
  46  'x+1/2, z+1/2, y'
  47  'z+3/4, -x+3/4, y+1/4'
  48  '-x, -z, y'
  49  'x+1/2, y+1/2, z'
  50  'z+1/4, y+1/4, -x+1/4'
  51  '-x+1/2, y+1/2, -z'
  52  '-z+1/4, y+1/4, x+1/4'
  53  'x, -y, -z'
  54  'z+1/4, -y+1/4, x+1/4'
  55  '-x+1/2, -y, z+1/2'
  56  '-z+1/4, -y+1/4, -x+1/4'
  57  '-y+1/2, z+1/2, -x'
  58  '-y+1/4, -x+1/4, -z+1/4'
  59  '-y+1/2, -z+1/2, x'
  60  '-y+1/4, x+1/4, z+1/4'
  61  'y+1/2, -z+1/2, -x'
  62  'y+1/4, x+1/4, -z+1/4'
  63  'y+1/2, z+1/2, x'
  64  'y+1/4, -x+1/4, z+1/4'
  65  '-z+1/2, -x+1/2, y'
  66  'x+1/4, -z+1/4, y+1/4'
  67  'z, x, y'
  68  '-x+1/4, z+1/4, y+1/4'
  69  'z+1/2, -x+1/2, -y'
  70  '-x+1/4, -z+1/4, -y+1/4'
  71  '-z, x, -y'
  72  'x+1/4, z+1/4, -y+1/4'
  73  '-x+1/4, -y+1/4, -z+1/4'
  74  '-z, -y, x'
  75  'x+1/4, -y+1/4, z+1/4'
  76  'z+1/2, -y+1/2, -x'
  77  '-x+1/4, y+1/4, z+1/4'
  78  '-z+1/2, y+1/2, -x'
  79  'x+1/4, y+1/4, -z+1/4'
  80  'z+1/2, y+1/2, x'
  81  'y+1/4, -z+1/4, x+1/4'
  82  'y, x, z'
  83  'y+1/4, z+1/4, -x+1/4'
  84  'y+1/2, -x+1/2, -z'
  85  '-y+1/4, z+1/4, x+1/4'
  86  '-y, -x, z'
  87  '-y+1/4, -z+1/4, -x+1/4'
  88  '-y, x, -z'
  89  'z+1/4, x+1/4, -y+1/4'
  90  '-x+1/2, z+1/2, -y'
  91  '-z+1/4, -x+1/4, -y+1/4'
  92  'x+1/2, -z+1/2, -y'
  93  '-z+1/4, x+1/4, y+1/4'
  94  'x, z, y'
  95  'z+1/4, -x+1/4, y+1/4'
  96  '-x+1/2, -z+1/2, y'
  97  'x+1/2, y, z+1/2'
  98  'z+1/4, y+3/4, -x+3/4'
  99  '-x+1/2, y, -z+1/2'
  100  '-z+1/4, y+3/4, x+3/4'
  101  'x, -y+1/2, -z+1/2'
  102  'z+1/4, -y+3/4, x+3/4'
  103  '-x+1/2, -y+1/2, z'
  104  '-z+1/4, -y+3/4, -x+3/4'
  105  '-y+1/2, z, -x+1/2'
  106  '-y+1/4, -x+3/4, -z+3/4'
  107  '-y+1/2, -z, x+1/2'
  108  '-y+1/4, x+3/4, z+3/4'
  109  'y+1/2, -z, -x+1/2'
  110  'y+1/4, x+3/4, -z+3/4'
  111  'y+1/2, z, x+1/2'
  112  'y+1/4, -x+3/4, z+3/4'
  113  '-z+1/2, -x, y+1/2'
  114  'x+1/4, -z+3/4, y+3/4'
  115  'z, x+1/2, y+1/2'
  116  '-x+1/4, z+3/4, y+3/4'
  117  'z+1/2, -x, -y+1/2'
  118  '-x+1/4, -z+3/4, -y+3/4'
  119  '-z, x+1/2, -y+1/2'
  120  'x+1/4, z+3/4, -y+3/4'
  121  '-x+1/4, -y+3/4, -z+3/4'
  122  '-z, -y+1/2, x+1/2'
  123  'x+1/4, -y+3/4, z+3/4'
  124  'z+1/2, -y, -x+1/2'
  125  '-x+1/4, y+3/4, z+3/4'
  126  '-z+1/2, y, -x+1/2'
  127  'x+1/4, y+3/4, -z+3/4'
  128  'z+1/2, y, x+1/2'
  129  'y+1/4, -z+3/4, x+3/4'
  130  'y, x+1/2, z+1/2'
  131  'y+1/4, z+3/4, -x+3/4'
  132  'y+1/2, -x, -z+1/2'
  133  '-y+1/4, z+3/4, x+3/4'
  134  '-y, -x+1/2, z+1/2'
  135  '-y+1/4, -z+3/4, -x+3/4'
  136  '-y, x+1/2, -z+1/2'
  137  'z+1/4, x+3/4, -y+3/4'
  138  '-x+1/2, z, -y+1/2'
  139  '-z+1/4, -x+3/4, -y+3/4'
  140  'x+1/2, -z, -y+1/2'
  141  '-z+1/4, x+3/4, y+3/4'
  142  'x, z+1/2, y+1/2'
  143  'z+1/4, -x+3/4, y+3/4'
  144  '-x+1/2, -z, y+1/2'
  145  'x, y+1/2, z+1/2'
  146  'z+3/4, y+1/4, -x+3/4'
  147  '-x, y+1/2, -z+1/2'
  148  '-z+3/4, y+1/4, x+3/4'
  149  'x+1/2, -y, -z+1/2'
  150  'z+3/4, -y+1/4, x+3/4'
  151  '-x, -y, z'
  152  '-z+3/4, -y+1/4, -x+3/4'
  153  '-y, z+1/2, -x+1/2'
  154  '-y+3/4, -x+1/4, -z+3/4'
  155  '-y, -z+1/2, x+1/2'
  156  '-y+3/4, x+1/4, z+3/4'
  157  'y, -z+1/2, -x+1/2'
  158  'y+3/4, x+1/4, -z+3/4'
  159  'y, z+1/2, x+1/2'
  160  'y+3/4, -x+1/4, z+3/4'
  161  '-z, -x+1/2, y+1/2'
  162  'x+3/4, -z+1/4, y+3/4'
  163  'z+1/2, x, y+1/2'
  164  '-x+3/4, z+1/4, y+3/4'
  165  'z, -x+1/2, -y+1/2'
  166  '-x+3/4, -z+1/4, -y+3/4'
  167  '-z+1/2, x, -y+1/2'
  168  'x+3/4, z+1/4, -y+3/4'
  169  '-x+3/4, -y+1/4, -z+3/4'
  170  '-z+1/2, -y, x+1/2'
  171  'x+3/4, -y+1/4, z+3/4'
  172  'z, -y+1/2, -x+1/2'
  173  '-x+3/4, y+1/4, z+3/4'
  174  '-z, y+1/2, -x+1/2'
  175  'x+3/4, y+1/4, -z+3/4'
  176  'z, y+1/2, x+1/2'
  177  'y+3/4, -z+1/4, x+3/4'
  178  'y+1/2, x, z+1/2'
  179  'y+3/4, z+1/4, -x+3/4'
  180  'y, -x+1/2, -z+1/2'
  181  '-y+3/4, z+1/4, x+3/4'
  182  '-y+1/2, -x, z+1/2'
  183  '-y+3/4, -z+1/4, -x+3/4'
  184  '-y+1/2, x, -z+1/2'
  185  'z+3/4, x+1/4, -y+3/4'
  186  '-x, z+1/2, -y+1/2'
  187  '-z+3/4, -x+1/4, -y+3/4'
  188  'x, -z+1/2, -y+1/2'
  189  '-z+3/4, x+1/4, y+3/4'
  190  'x+1/2, z, y+1/2'
  191  'z+3/4, -x+1/4, y+3/4'
  192  '-x, -z+1/2, y+1/2'
loop_
 _atom_site_type_symbol
 _atom_site_label
 _atom_site_symmetry_multiplicity
 _atom_site_fract_x
 _atom_site_fract_y
 _atom_site_fract_z
 _atom_site_occupancy
  Y  Y1  16  0.125000  0.125000  0.625000  1
  Ti  Ti2  16  0.125000  0.125000  0.125000  1
  O  O3  48  0.000000  0.000000  0.204554  1
  O  O4  8  0.000000  0.000000  0.500000  1
